Circuit: * E:\git\guitarEffects\LtSpice\Input.asc

WARNING: Node N003 is floating.

WARNING: Less than two connections to node N003.  This node is used by C1.
Direct Newton iteration for .op point succeeded.

Date: Tue Jul 15 21:13:04 2014
Total elapsed time: 0.041 seconds.

tnom = 27
temp = 27
method = trap
totiter = 19
traniter = 0
tranpoints = 0
accept = 0
rejected = 0
matrix size = 19
fillins = 4
solver = Normal
Matrix Compiler1:      68 opcodes
Matrix Compiler2: 1.78 KB object code size

